Version 4
SHEET 1 880 680
WIRE -304 0 -432 0
WIRE -32 0 -304 0
WIRE -32 80 -32 0
WIRE -304 112 -304 80
WIRE -240 112 -304 112
WIRE -304 128 -304 112
WIRE -528 176 -624 176
WIRE -432 176 -432 80
WIRE -432 176 -464 176
WIRE -384 176 -432 176
WIRE -432 192 -432 176
WIRE -624 304 -624 176
WIRE -432 304 -432 272
WIRE -432 304 -624 304
WIRE -304 304 -304 224
WIRE -304 304 -432 304
WIRE -32 304 -32 160
WIRE -32 304 -304 304
FLAG -304 304 0
SYMBOL EXTRA\\Philips\\NMOSFET\\2N7000 -336 176 R0
SYMATTR InstName U1
SYMBOL cap -464 160 R90
WINDOW 0 0 32 VBottom 2
WINDOW 3 32 32 VTop 2
SYMATTR InstName C1
SYMATTR Value 10µ
SYMBOL res -448 -16 R0
SYMATTR InstName R1
SYMATTR Value 121500
SYMBOL res -448 176 R0
SYMATTR InstName R2
SYMATTR Value 50600
SYMBOL res -320 -16 R0
SYMATTR InstName R3
SYMATTR Value 235
SYMBOL voltage -32 64 R0
WINDOW 123 0 0 Left 2
WINDOW 39 0 0 Left 2
SYMATTR InstName V2
SYMATTR Value 5
SYMBOL cap -176 96 R90
WINDOW 0 0 32 VBottom 2
WINDOW 3 32 32 VTop 2
SYMATTR InstName C2
SYMATTR Value 10µ
TEXT -656 328 Left 2 !.tran 1m
