Version 4
SHEET 1 880 680
WIRE 144 64 96 64
WIRE 272 64 224 64
WIRE 272 128 272 64
WIRE 96 144 96 64
WIRE 272 224 272 192
WIRE 272 224 96 224
FLAG 96 224 0
SYMBOL voltage 96 128 R0
WINDOW 123 0 0 Left 2
WINDOW 39 0 0 Left 2
SYMATTR InstName V1
SYMATTR Value PULSE(0 1 0 1ps 1ps 125u 250u)
SYMBOL cap 256 128 R0
SYMATTR InstName C1
SYMATTR Value 0.00991µ
SYMBOL res 240 48 R90
WINDOW 0 0 56 VBottom 2
WINDOW 3 32 56 VTop 2
SYMATTR InstName R1
SYMATTR Value 1k
TEXT 64 248 Left 2 !.tran 0.4m
