Version 4
SHEET 1 880 680
WIRE 560 64 464 64
WIRE 656 64 560 64
WIRE 288 80 128 80
WIRE 352 80 288 80
WIRE 128 144 128 80
WIRE 560 144 560 64
WIRE 656 144 656 64
WIRE 352 160 352 144
WIRE 464 160 464 64
WIRE 464 160 352 160
WIRE 288 224 288 144
WIRE 464 224 288 224
WIRE 352 240 352 160
WIRE 288 272 288 224
WIRE 464 320 464 224
WIRE 560 320 560 208
WIRE 560 320 464 320
WIRE 656 320 656 224
WIRE 656 320 560 320
WIRE 128 336 128 224
WIRE 288 336 128 336
WIRE 352 336 352 304
WIRE 352 336 288 336
FLAG 128 336 0
SYMBOL voltage 128 128 R0
WINDOW 123 0 0 Left 2
WINDOW 39 0 0 Left 2
SYMATTR InstName V1
SYMATTR Value SINE(0 5 50)
SYMBOL diode 336 80 R0
SYMATTR InstName D1
SYMATTR Value 1N914
SYMBOL diode 304 144 R180
WINDOW 0 24 64 Left 2
WINDOW 3 24 0 Left 2
SYMATTR InstName D2
SYMATTR Value 1N914
SYMBOL diode 368 304 R180
WINDOW 0 24 64 Left 2
WINDOW 3 24 0 Left 2
SYMATTR InstName D3
SYMATTR Value 1N914
SYMBOL diode 272 272 R0
SYMATTR InstName D4
SYMATTR Value 1N914
SYMBOL res 640 128 R0
SYMATTR InstName R1
SYMATTR Value 4.71k
SYMBOL cap 544 144 R0
SYMATTR InstName C1
SYMATTR Value 10.1µ
TEXT 94 248 Left 2 !.tran 40m
