Version 4
SHEET 1 880 680
WIRE 224 32 96 32
WIRE 96 144 96 112
WIRE 224 144 224 112
FLAG 96 224 0
FLAG 224 224 0
SYMBOL voltage 96 128 R0
WINDOW 123 0 0 Left 2
WINDOW 39 0 0 Left 2
WINDOW 3 196 110 Invisible 2
SYMATTR InstName V1
SYMATTR Value PULSE(0 1 0 1ps 1ps 0.5m 1m)
SYMBOL voltage 224 128 R0
WINDOW 123 0 0 Left 2
WINDOW 39 0 0 Left 2
SYMATTR InstName V2
SYMATTR Value SINE(0 1 5k)
SYMBOL res 80 16 R0
SYMATTR InstName R1
SYMATTR Value 62k
SYMBOL res 208 16 R0
SYMATTR InstName R2
SYMATTR Value 62k
TEXT 64 248 Left 2 !.tran 2m
